ULAD215/ssdMT_ULAD215.dss
New line.mt622080 phases=3 bus1=150536172.1.2.3 bus2=1523442C.1.2.3 linecode=CABA08_3_3_3 length=0.008995 units=km 
New line.mt622094 phases=3 bus1=1523442C.1.2.3 bus2=1523449C.1.2.3 linecode=CABA08_3_3_3 length=0.015025 units=km 
New line.mt622108 phases=3 bus1=1523449C.1.2.3 bus2=150487741.1.2.3 linecode=CABA08_3_3_3 length=0.024069 units=km 
New line.mt622122 phases=3 bus1=171585958.1.2.3 bus2=1523463C.1.2.3 linecode=CABA08_3_3_3 length=0.033357 units=km 
New line.mt622136 phases=3 bus1=1523463C.1.2.3 bus2=1523470C.1.2.3 linecode=CABA08_3_3_3 length=0.027642 units=km 
New line.mt622150 phases=3 bus1=1523470C.1.2.3 bus2=1523477C.1.2.3 linecode=CABA08_3_3_3 length=0.030787 units=km 
New line.mt622164 phases=3 bus1=1523477C.1.2.3 bus2=1523484C.1.2.3 linecode=CABA08_3_3_3 length=0.02691 units=km 
New line.mt622178 phases=3 bus1=1523484C.1.2.3 bus2=171585959.1.2.3 linecode=CABA08_3_3_3 length=0.028143 units=km 
New line.mt622192 phases=3 bus1=171585959.1.2.3 bus2=1523498C.1.2.3 linecode=CABA08_3_3_3 length=0.02784 units=km 
New line.mt622206 phases=3 bus1=1523498C.1.2.3 bus2=1523505C.1.2.3 linecode=CABA08_3_3_3 length=0.028619 units=km 
New line.mt622220 phases=3 bus1=1523505C.1.2.3 bus2=1523512C.1.2.3 linecode=CABA08_3_3_3 length=0.028161000000000002 units=km 
New line.mt622234 phases=3 bus1=1523512C.1.2.3 bus2=1523519C.1.2.3 linecode=CABA08_3_3_3 length=0.028161000000000002 units=km 
New line.mt622248 phases=3 bus1=1523519C.1.2.3 bus2=1523526C.1.2.3 linecode=CABA08_3_3_3 length=0.029998999999999998 units=km 
New line.mt622262 phases=3 bus1=1523526C.1.2.3 bus2=1523533C.1.2.3 linecode=CABA08_3_3_3 length=0.031046 units=km 
New line.mt622276 phases=3 bus1=1523533C.1.2.3 bus2=1523540C.1.2.3 linecode=CABA08_3_3_3 length=0.028584 units=km 
New line.mt622290 phases=3 bus1=1523540C.1.2.3 bus2=1523547C.1.2.3 linecode=CABA08_3_3_3 length=0.029981999999999998 units=km 
New line.mt622304 phases=3 bus1=1523547C.1.2.3 bus2=1523554C.1.2.3 linecode=CABA08_3_3_3 length=0.029981999999999998 units=km 
New line.mt622318 phases=3 bus1=1523554C.1.2.3 bus2=1523561C.1.2.3 linecode=CABA08_3_3_3 length=0.029981999999999998 units=km 
New line.mt622332 phases=3 bus1=1523561C.1.2.3 bus2=1523568C.1.2.3 linecode=CABA08_3_3_3 length=0.032183 units=km 
New line.mt622346 phases=3 bus1=1523568C.1.2.3 bus2=1523575C.1.2.3 linecode=CABA08_3_3_3 length=0.029981999999999998 units=km 
New line.mt622360 phases=3 bus1=1523575C.1.2.3 bus2=1523582C.1.2.3 linecode=CABA08_3_3_3 length=0.032183 units=km 
New line.mt622374 phases=3 bus1=1523582C.1.2.3 bus2=1523589C.1.2.3 linecode=CABA08_3_3_3 length=0.029981999999999998 units=km 
New line.mt622388 phases=3 bus1=1523589C.1.2.3 bus2=1523596C.1.2.3 linecode=CABA08_3_3_3 length=0.028584 units=km 
New line.mt622402 phases=3 bus1=1523596C.1.2.3 bus2=1523603C.1.2.3 linecode=CABA08_3_3_3 length=0.041854999999999996 units=km 
New line.mt622416 phases=3 bus1=1523603C.1.2.3 bus2=1523610C.1.2.3 linecode=CABA08_3_3_3 length=0.023008 units=km 
New line.mt622430 phases=3 bus1=1523610C.1.2.3 bus2=1523617C.1.2.3 linecode=CABA08_3_3_3 length=0.020796 units=km 
New line.mt622444 phases=3 bus1=1523617C.1.2.3 bus2=1549440C.1.2.3 linecode=CABA08_3_3_3 length=0.043573999999999995 units=km 
New line.mt631649 phases=3 bus1=1539570B.1.2.3 bus2=168992870.1.2.3 linecode=CAB108_3_3_3 length=0.034387999999999995 units=km 
New line.mt637319 phases=3 bus1=1549440C.1.2.3 bus2=1549447C.1.2.3 linecode=CABA08_3_3_3 length=0.028584 units=km 
New line.mt637333 phases=3 bus1=1549447C.1.2.3 bus2=126313443.1.2.3 linecode=CABA08_3_3_3 length=0.024399 units=km 
New line.mt637347 phases=3 bus1=168992868.1.2.3 bus2=4276668.1.2.3 linecode=CABA08_3_3_3 length=0.033817 units=km 
New line.mt637466 phases=3 bus1=1549566B.1.2.3 bus2=1549573B.1.2.3 linecode=CABA08_3_3_3 length=0.036856 units=km 
New line.mt637473 phases=3 bus1=1549573B.1.2.3 bus2=1549580B.1.2.3 linecode=CABA08_3_3_3 length=0.03358 units=km 
New line.mt637480 phases=3 bus1=1549580B.1.2.3 bus2=168992869.1.2.3 linecode=CABA08_3_3_3 length=0.035587 units=km 
New line.mt637487 phases=3 bus1=168992869.1.2.3 bus2=1549594B.1.2.3 linecode=CAB108_3_3_3 length=0.027876 units=km 
New line.mt637494 phases=3 bus1=1549594B.1.2.3 bus2=1539570B.1.2.3 linecode=CAB108_3_3_3 length=0.08127 units=km 
New line.mt637501 phases=3 bus1=1549601B.1.2.3 bus2=1549566B.1.2.3 linecode=CABA08_3_3_3 length=0.028408000000000003 units=km 
New line.mt637508 phases=3 bus1=4276668.1.2.3 bus2=1549601B.1.2.3 linecode=CABA08_3_3_3 length=0.029189 units=km 
New line.mt637515 phases=3 bus1=168992868.1.2.3 bus2=4276668.1.2.3 linecode=CABA08_3_3_3 length=0.0005 units=km 
New line.mt641799 phases=3 bus1=1558596B.1.2.3 bus2=174711656.1.2.3 linecode=CABA08_3_3_3 length=0.028582999999999997 units=km 
New line.mt641806 phases=3 bus1=1558596B.1.2.3 bus2=174711655.1.2.3 linecode=CABA08_3_3_3 length=0.039384 units=km 
New line.mt641820 phases=3 bus1=1558631B.1.2.3 bus2=1558645B.1.2.3 linecode=CABA08_3_3_3 length=0.030787 units=km 
New line.mt641827 phases=3 bus1=1558645B.1.2.3 bus2=167617164.1.2.3 linecode=CABA08_3_3_3 length=0.029981999999999998 units=km 
New line.mt645355 phases=3 bus1=171586147.1.2.3 bus2=1565022B.1.2.3 linecode=CABA08_3_3_3 length=0.032183 units=km 
New line.mt645362 phases=3 bus1=1565022B.1.2.3 bus2=1565029B.1.2.3 linecode=CABA08_3_3_3 length=0.029393 units=km 
New line.mt645369 phases=3 bus1=1565029B.1.2.3 bus2=171586148.1.2.3 linecode=CABA08_3_3_3 length=0.027187000000000003 units=km 
New line.mt645376 phases=3 bus1=171586148.1.2.3 bus2=1565043B.1.2.3 linecode=CABA08_3_3_3 length=0.029981999999999998 units=km 
New line.mt645383 phases=3 bus1=1565043B.1.2.3 bus2=1565050B.1.2.3 linecode=CABA08_3_3_3 length=0.026385000000000002 units=km 
New line.mt645390 phases=3 bus1=1565050B.1.2.3 bus2=1565064B.1.2.3 linecode=CABA08_3_3_3 length=0.030787 units=km 
New line.mt645397 phases=3 bus1=1565064B.1.2.3 bus2=1565085B.1.2.3 linecode=CABA08_3_3_3 length=0.028001 units=km 
New line.mt645404 phases=3 bus1=1565085B.1.2.3 bus2=1760875B.1.2.3 linecode=CABA08_3_3_3 length=0.029393 units=km 
New line.mt650696 phases=3 bus1=1575508B.1.2.3 bus2=157679430.1.2.3 linecode=CABA08_3_3_3 length=0.028582999999999997 units=km 
New line.mt650703 phases=3 bus1=159373347.1.2.3 bus2=159373348.1.2.3 linecode=CABA08_3_3_3 length=0.027186 units=km 
New line.mt650717 phases=3 bus1=159373348.1.2.3 bus2=1575550B.1.2.3 linecode=CABA08_3_3_3 length=0.00905 units=km 
New line.mt650724 phases=3 bus1=159373348.1.2.3 bus2=157679457.1.2.3 linecode=CABA08_3_3_3 length=0.032183 units=km 
New line.mt650731 phases=3 bus1=1575550B.1.2.3 bus2=159373349.1.2.3 linecode=CABA08_3_3_3 length=0.029981999999999998 units=km 
New line.mt650738 phases=3 bus1=181512513.1.2.3 bus2=1575592B.1.2.3 linecode=CABA08_3_3_3 length=0.030213999999999998 units=km 
New line.mt650745 phases=3 bus1=159373349.1.2.3 bus2=1575585B.1.2.3 linecode=CABA08_3_3_3 length=0.032183 units=km 
New line.mt650752 phases=3 bus1=1575585B.1.2.3 bus2=159373350.1.2.3 linecode=CABA08_3_3_3 length=0.030787 units=km 
New line.mt650759 phases=3 bus1=1575592B.1.2.3 bus2=1575620B.1.2.3 linecode=CABA08_3_3_3 length=0.028582999999999997 units=km 
New line.mt650780 phases=3 bus1=1575620B.1.2.3 bus2=181512514.1.2.3 linecode=CABA08_3_3_3 length=0.025791 units=km 
New line.mt653944 phases=3 bus1=1581262B.1.2.3 bus2=1581269B.1.2.3 linecode=CABA08_3_3_3 length=0.028582999999999997 units=km 
New line.mt653951 phases=3 bus1=1581269B.1.2.3 bus2=1581276B.1.2.3 linecode=CABA08_3_3_3 length=0.030787 units=km 
New line.mt653958 phases=3 bus1=1581276B.1.2.3 bus2=1581290B.1.2.3 linecode=CABA08_3_3_3 length=0.027186 units=km 
New line.mt653965 phases=3 bus1=1581290B.1.2.3 bus2=1581297B.1.2.3 linecode=CABA08_3_3_3 length=0.002235 units=km 
New line.mt653972 phases=3 bus1=1581297B.1.2.3 bus2=181512515.1.2.3 linecode=CABA08_3_3_3 length=0.038577 units=km 
New line.mt653979 phases=3 bus1=181512515.1.2.3 bus2=1588927B.1.2.3 linecode=CABA08_3_3_3 length=0.03358 units=km 
New line.mt658851 phases=3 bus1=1588927B.1.2.3 bus2=126316250.1.2.3 linecode=CABA08_3_3_3 length=0.031603 units=km 
New line.mt658858 phases=3 bus1=160522285.1.2.3 bus2=160522286.1.2.3 linecode=CABA08_3_3_3 length=0.028582999999999997 units=km 
New line.mt658865 phases=3 bus1=160522286.1.2.3 bus2=160522287.1.2.3 linecode=CABA08_3_3_3 length=0.03358 units=km 
New line.mt658872 phases=3 bus1=160522286.1.2.3 bus2=1793761B.1.2.3 linecode=CABA08_3_3_3 length=0.007067 units=km 
New line.mt658879 phases=3 bus1=160522287.1.2.3 bus2=1588955B.1.2.3 linecode=CABA08_3_3_3 length=0.03358 units=km 
New line.mt658886 phases=3 bus1=1588955B.1.2.3 bus2=1588962B.1.2.3 linecode=CABA08_3_3_3 length=0.023587 units=km 
New line.mt658893 phases=3 bus1=1588962B.1.2.3 bus2=1592532B.1.2.3 linecode=CABA08_3_3_3 length=0.021388 units=km 
New line.mt660489 phases=3 bus1=1592532B.1.2.3 bus2=160522289.1.2.3 linecode=CABA08_3_3_3 length=0.00447 units=km 
New line.mt660496 phases=3 bus1=126316299.1.2.3 bus2=157452331.1.2.3 linecode=CABA08_3_3_3 length=0.03358 units=km 
New line.mt660503 phases=3 bus1=157452331.1.2.3 bus2=1592560B.1.2.3 linecode=CABA08_3_3_3 length=0.028001 units=km 
New line.mt660510 phases=3 bus1=1592560B.1.2.3 bus2=1592567B.1.2.3 linecode=CABA08_3_3_3 length=0.029981999999999998 units=km 
New line.mt660517 phases=3 bus1=1592567B.1.2.3 bus2=1592574B.1.2.3 linecode=CABA08_3_3_3 length=0.037179000000000004 units=km 
New line.mt660524 phases=3 bus1=1592574B.1.2.3 bus2=1592581B.1.2.3 linecode=CABA08_3_3_3 length=0.028582999999999997 units=km 
New line.mt660531 phases=3 bus1=1592581B.1.2.3 bus2=1592588B.1.2.3 linecode=CABA08_3_3_3 length=0.028582999999999997 units=km 
New line.mt660538 phases=3 bus1=1592588B.1.2.3 bus2=1604509B.1.2.3 linecode=CABA08_3_3_3 length=0.025791 units=km 
New line.mt667531 phases=3 bus1=1604509B.1.2.3 bus2=1604516B.1.2.3 linecode=CABA08_3_3_3 length=0.029393 units=km 
New line.mt667538 phases=3 bus1=1604516B.1.2.3 bus2=1604523B.1.2.3 linecode=CABA08_3_3_3 length=0.029981999999999998 units=km 
New line.mt667545 phases=3 bus1=1604523B.1.2.3 bus2=1604530B.1.2.3 linecode=CABA08_3_3_3 length=0.028001 units=km 
New line.mt667552 phases=3 bus1=1604530B.1.2.3 bus2=157452332.1.2.3 linecode=CABA08_3_3_3 length=0.027186 units=km 
New line.mt667559 phases=3 bus1=157452332.1.2.3 bus2=1604558B.1.2.3 linecode=CABA08_3_3_3 length=0.004997 units=km 
New line.mt667566 phases=3 bus1=157452332.1.2.3 bus2=157450194.1.2.3 linecode=CABA08_3_3_3 length=0.006078999999999999 units=km 
New line.mt667573 phases=3 bus1=1604558B.1.2.3 bus2=1604572B.1.2.3 linecode=CABA08_3_3_3 length=0.025791 units=km 
New line.mt667587 phases=3 bus1=1604572B.1.2.3 bus2=157452333.1.2.3 linecode=CABA08_3_3_3 length=0.026385000000000002 units=km 
New line.mt667615 phases=3 bus1=157452333.1.2.3 bus2=126316327.1.2.3 linecode=CABA08_3_3_3 length=0.028582999999999997 units=km 
New line.mt667629 phases=3 bus1=177308330.1.2.3 bus2=1604635B.1.2.3 linecode=CABA08_3_3_3 length=0.030213999999999998 units=km 
New line.mt667643 phases=3 bus1=1604635B.1.2.3 bus2=1604656B.1.2.3 linecode=CABA08_3_3_3 length=0.024985 units=km 
New line.mt667650 phases=3 bus1=1604656B.1.2.3 bus2=177308331.1.2.3 linecode=CABA08_3_3_3 length=0.030787 units=km 
New line.mt667657 phases=3 bus1=177308331.1.2.3 bus2=177308332.1.2.3 linecode=CABA08_3_3_3 length=0.038577 units=km 
New line.mt667664 phases=3 bus1=177308332.1.2.3 bus2=177308335.1.2.3 linecode=CABA08_3_3_3 length=0.015802 units=km 
New line.mt667671 phases=3 bus1=177308335.1.2.3 bus2=1604684B.1.2.3 linecode=CABA08_3_3_3 length=0.0064 units=km 
New line.mt667678 phases=3 bus1=177308335.1.2.3 bus2=1606882B.1.2.3 linecode=CABA08_3_3_3 length=0.024398 units=km 
New line.mt667685 phases=3 bus1=177308335.1.2.3 bus2=1606896B.1.2.3 linecode=CABA08_3_3_3 length=0.00424 units=km 
New line.mt667692 phases=3 bus1=1604684B.1.2.3 bus2=177308336.1.2.3 linecode=CABA08_3_3_3 length=0.025791 units=km 
New line.mt667699 phases=3 bus1=177308336.1.2.3 bus2=1752188B.1.2.3 linecode=CAB103_3_3_3 length=0.029981999999999998 units=km 
New line.mt668875 phases=3 bus1=126316397.1.2.3 bus2=3134310.1.2.3 linecode=CABA08_3_3_3 length=0.026385000000000002 units=km 
New line.mt668882 phases=3 bus1=126316411.1.2.3 bus2=126316418.1.2.3 linecode=CAB902_4_3_3 length=0.008596999999999999 units=km 
New line.mt668889 phases=3 bus1=177308329.1.2.3 bus2=126316397.1.2.3 linecode=CABA08_3_3_3 length=0.027186 units=km 
New line.mt668896 phases=3 bus1=177308329.1.2.3 bus2=126316404.1.2.3 linecode=CABA08_3_3_3 length=0.030787 units=km 
New line.mt668903 phases=3 bus1=126316369.1.2.3 bus2=177308329.1.2.3 linecode=CABA08_3_3_3 length=0.026385000000000002 units=km 
New line.mt668910 phases=3 bus1=168605416.1.2.3 bus2=132442433.1.2.3 linecode=CABA08_3_3_3 length=0.030591999999999998 units=km 
New line.mt668917 phases=3 bus1=1606875B.1.2.3 bus2=177308337.1.2.3 linecode=CABA08_3_3_3 length=0.027186 units=km 
New line.mt668924 phases=3 bus1=1606882B.1.2.3 bus2=1606875B.1.2.3 linecode=CABA08_3_3_3 length=0.026385000000000002 units=km 
New line.mt668931 phases=3 bus1=132442433.1.2.3 bus2=1611789B.1.2.3 linecode=CABA08_3_3_3 length=0.028001 units=km 
New line.mt668938 phases=3 bus1=1606896B.1.2.3 bus2=157451058.1.2.3 linecode=CABA08_3_3_3 length=0.030787 units=km 
New line.mt670443 phases=3 bus1=1609780B.1.2.3 bus2=167792571.1.2.3 linecode=CAB107_3_3_3 length=0.031603 units=km 
New line.mt670450 phases=3 bus1=1609801B.1.2.3 bus2=1609780B.1.2.3 linecode=CAB107_3_3_3 length=0.031381 units=km 
New line.mt670457 phases=3 bus1=181747761.1.2.3 bus2=1609801B.1.2.3 linecode=CAB107_3_3_3 length=0.029393 units=km 
New line.mt670464 phases=3 bus1=1609822B.1.2.3 bus2=181747761.1.2.3 linecode=CAB107_3_3_3 length=0.031381 units=km 
New line.mt670471 phases=3 bus1=181747759.1.2.3 bus2=1609822B.1.2.3 linecode=CAB107_3_3_3 length=0.023586 units=km 
New line.mt670478 phases=3 bus1=181747759.1.2.3 bus2=1609836B.1.2.3 linecode=CAB107_3_3_3 length=0.004997 units=km 
New line.mt670485 phases=3 bus1=181747759.1.2.3 bus2=126316579.1.2.3 linecode=CAB107_3_3_3 length=0.029393 units=km 
New line.mt670492 phases=3 bus1=1609850B.1.2.3 bus2=181747759.1.2.3 linecode=CAB107_3_3_3 length=0.0064 units=km 
New line.mt670499 phases=3 bus1=1609857B.1.2.3 bus2=1609850B.1.2.3 linecode=CAB107_3_3_3 length=0.024985 units=km 
New line.mt670506 phases=3 bus1=126316586.1.2.3 bus2=1609871B.1.2.3 linecode=CAB107_3_3_3 length=0.029393 units=km 
New line.mt670513 phases=3 bus1=1609871B.1.2.3 bus2=1613028B.1.2.3 linecode=CAB107_3_3_3 length=0.024398 units=km 
New line.mt671003 phases=3 bus1=1610746B.1.2.3 bus2=1610837B.1.2.3 linecode=CABA06_3_3_3 length=0.019405000000000002 units=km 
New line.mt671010 phases=3 bus1=173624807.1.2.3 bus2=1610746B.1.2.3 linecode=CABA06_3_3_3 length=0.027186 units=km 
New line.mt671017 phases=3 bus1=173624808.1.2.3 bus2=173624809.1.2.3 linecode=CAB103_3_3_3 length=0.025791 units=km 
New line.mt671024 phases=3 bus1=173624806.1.2.3 bus2=173624807.1.2.3 linecode=CAB107_3_3_3 length=0.028827000000000002 units=km 
New line.mt671031 phases=3 bus1=173624806.1.2.3 bus2=173624808.1.2.3 linecode=CAB107_3_3_3 length=0.022009 units=km 
New line.mt671038 phases=3 bus1=173624806.1.2.3 bus2=1610802B.1.2.3 linecode=CAB107_3_3_3 length=0.005828000000000001 units=km 
New line.mt671045 phases=3 bus1=1610802B.1.2.3 bus2=1610816B.1.2.3 linecode=CAB107_3_3_3 length=0.029981999999999998 units=km 
New line.mt671052 phases=3 bus1=173624805.1.2.3 bus2=173624806.1.2.3 linecode=CAB107_3_3_3 length=0.003604 units=km 
New line.mt671059 phases=3 bus1=1610816B.1.2.3 bus2=1610823B.1.2.3 linecode=CAB107_3_3_3 length=0.032995 units=km 
New line.mt671066 phases=3 bus1=1610823B.1.2.3 bus2=126316502.1.2.3 linecode=CAB107_3_3_3 length=0.032183 units=km 
New line.mt671073 phases=3 bus1=1610837B.1.2.3 bus2=1817498B.1.2.3 linecode=CABA06_3_3_3 length=0.010192 units=km 
New line.mt671080 phases=3 bus1=1610844B.1.2.3 bus2=181748162.1.2.3 linecode=CAB107_3_3_3 length=0.035783 units=km 
New line.mt671087 phases=3 bus1=1610851B.1.2.3 bus2=1610844B.1.2.3 linecode=CAB107_3_3_3 length=0.038577 units=km 
New line.mt671094 phases=3 bus1=1610858B.1.2.3 bus2=1610851B.1.2.3 linecode=CAB107_3_3_3 length=0.031045000000000003 units=km 
New line.mt671283 phases=3 bus1=150346692.1.2.3 bus2=150346693.1.2.3 linecode=CAB609_3_3_3 length=0.004997 units=km 
New line.mt671290 phases=3 bus1=168605417.1.2.3 bus2=126316453.1.2.3 linecode=CAB108_3_3_3 length=0.029981999999999998 units=km 
New line.mt671619 phases=3 bus1=1611789B.1.2.3 bus2=168605417.1.2.3 linecode=CABA08_3_3_3 length=0.029981999999999998 units=km 
New line.mt671640 phases=3 bus1=126316453.1.2.3 bus2=168605418.1.2.3 linecode=CAB108_3_3_3 length=0.023586 units=km 
New line.mt671647 phases=3 bus1=150346690.1.2.3 bus2=150346691.1.2.3 linecode=CAB609_3_3_3 length=0.0041210000000000005 units=km 
New line.mt671654 phases=3 bus1=168605418.1.2.3 bus2=168605419.1.2.3 linecode=CAB108_3_3_3 length=0.022789999999999998 units=km 
New line.mt671661 phases=3 bus1=168605419.1.2.3 bus2=1616199B.1.2.3 linecode=CAB107_3_3_3 length=0.073364 units=km 
New line.mt672375 phases=3 bus1=1613028B.1.2.3 bus2=1613049B.1.2.3 linecode=CAB107_3_3_3 length=0.030787 units=km 
New line.mt672396 phases=3 bus1=1613049B.1.2.3 bus2=1613056B.1.2.3 linecode=CAB107_3_3_3 length=0.0064 units=km 
New line.mt672403 phases=3 bus1=1613056B.1.2.3 bus2=1613077B.1.2.3 linecode=CAB107_3_3_3 length=0.02219 units=km 
New line.mt672410 phases=3 bus1=1613077B.1.2.3 bus2=1613084B.1.2.3 linecode=CAB107_3_3_3 length=0.027186 units=km 
New line.mt672417 phases=3 bus1=1613084B.1.2.3 bus2=1613091B.1.2.3 linecode=CAB107_3_3_3 length=0.025791 units=km 
New line.mt672424 phases=3 bus1=1613091B.1.2.3 bus2=1619048B.1.2.3 linecode=CAB107_3_3_3 length=0.028001 units=km 
New line.mt672711 phases=3 bus1=1613539B.1.2.3 bus2=1609857B.1.2.3 linecode=CAB107_3_3_3 length=0.027186 units=km 
New line.mt672718 phases=3 bus1=1613546B.1.2.3 bus2=1613539B.1.2.3 linecode=CAB107_3_3_3 length=0.019988 units=km 
New line.mt672725 phases=3 bus1=181747757.1.2.3 bus2=1613546B.1.2.3 linecode=CAB107_3_3_3 length=0.005828000000000001 units=km 
New line.mt672732 phases=3 bus1=181747757.1.2.3 bus2=1613553B.1.2.3 linecode=CAB103_3_3_3 length=0.005654 units=km 
New line.mt672739 phases=3 bus1=181747757.1.2.3 bus2=1613567B.1.2.3 linecode=CAB107_3_3_3 length=0.024193000000000003 units=km 
New line.mt672746 phases=3 bus1=181747757.1.2.3 bus2=1613574B.1.2.3 linecode=CAB103_3_3_3 length=0.023586 units=km 
New line.mt672753 phases=3 bus1=1613567B.1.2.3 bus2=1613581B.1.2.3 linecode=CAB107_3_3_3 length=0.028582999999999997 units=km 
New line.mt672760 phases=3 bus1=1613574B.1.2.3 bus2=181747760.1.2.3 linecode=CAB103_3_3_3 length=0.030787 units=km 
New line.mt672767 phases=3 bus1=1613581B.1.2.3 bus2=1613595B.1.2.3 linecode=CAB107_3_3_3 length=0.025791 units=km 
New line.mt672774 phases=3 bus1=181747755.1.2.3 bus2=181747756.1.2.3 linecode=CAB107_3_3_3 length=0.004997 units=km 
New line.mt672781 phases=3 bus1=181747756.1.2.3 bus2=1613595B.1.2.3 linecode=CAB107_3_3_3 length=0.022789999999999998 units=km 
New line.mt672788 phases=3 bus1=181747756.1.2.3 bus2=1613616B.1.2.3 linecode=CAB107_3_3_3 length=0.007207 units=km 
New line.mt672795 phases=3 bus1=181747756.1.2.3 bus2=181747758.1.2.3 linecode=CAB107_3_3_3 length=0.025791 units=km 
New line.mt673992 phases=3 bus1=1616199B.1.2.3 bus2=168605420.1.2.3 linecode=CAB107_3_3_3 length=0.026385000000000002 units=km 
New line.mt673999 phases=3 bus1=1616206B.1.2.3 bus2=1610858B.1.2.3 linecode=CAB107_3_3_3 length=0.049969 units=km 
New line.mt674006 phases=3 bus1=1616213B.1.2.3 bus2=1616206B.1.2.3 linecode=CAB107_3_3_3 length=0.024398 units=km 
New line.mt674013 phases=3 bus1=1616227B.1.2.3 bus2=1616213B.1.2.3 linecode=CAB107_3_3_3 length=0.004997 units=km 
New line.mt674020 phases=3 bus1=181748161.1.2.3 bus2=1616227B.1.2.3 linecode=CAB107_3_3_3 length=0.034978 units=km 
New line.mt674027 phases=3 bus1=181748161.1.2.3 bus2=1616269B.1.2.3 linecode=CAB107_3_3_3 length=0.028582999999999997 units=km 
New line.mt674034 phases=3 bus1=1616262B.1.2.3 bus2=168605421.1.2.3 linecode=CAB107_3_3_3 length=0.026385000000000002 units=km 
New line.mt674041 phases=3 bus1=1616276B.1.2.3 bus2=1616262B.1.2.3 linecode=CAB107_3_3_3 length=0.02219 units=km 
New line.mt674048 phases=3 bus1=1616276B.1.2.3 bus2=1616269B.1.2.3 linecode=CAB107_3_3_3 length=0.006704 units=km 
New line.mt674055 phases=3 bus1=1616276B.1.2.3 bus2=1616283B.1.2.3 linecode=CAB107_3_3_3 length=0.0064 units=km 
New line.mt674062 phases=3 bus1=1616276B.1.2.3 bus2=1616290B.1.2.3 linecode=CAB107_3_3_3 length=0.029188 units=km 
New line.mt675308 phases=3 bus1=1619048B.1.2.3 bus2=126316593.1.2.3 linecode=CAB107_3_3_3 length=0.019198 units=km 
New line.mt675315 phases=3 bus1=126316593.1.2.3 bus2=1619055B.1.2.3 linecode=CAB103_3_3_3 length=0.025791 units=km 
New line.mt675322 phases=3 bus1=126316593.1.2.3 bus2=1619069B.1.2.3 linecode=CAB103_3_3_3 length=0.005654 units=km 
New line.mt675329 phases=3 bus1=126316593.1.2.3 bus2=126316607.1.2.3 linecode=CAB107_3_3_3 length=0.007207 units=km 
New line.mt675336 phases=3 bus1=1619069B.1.2.3 bus2=126316600.1.2.3 linecode=CAB103_3_3_3 length=0.025791 units=km 
New line.mt675343 phases=3 bus1=162898859.1.2.3 bus2=1619097B.1.2.3 linecode=CAB107_3_3_3 length=0.027186 units=km 
New line.mt675350 phases=3 bus1=1619097B.1.2.3 bus2=1621855B.1.2.3 linecode=CAB107_3_3_3 length=0.028582999999999997 units=km 
New line.mt675525 phases=3 bus1=126316873.1.2.3 bus2=1622002B.1.2.3 linecode=CAB107_3_3_3 length=0.029393 units=km 
New line.mt677100 phases=3 bus1=1621855B.1.2.3 bus2=1621869B.1.2.3 linecode=CAB107_3_3_3 length=0.038577 units=km 
New line.mt677107 phases=3 bus1=1621869B.1.2.3 bus2=162898860.1.2.3 linecode=CAB107_3_3_3 length=0.015802 units=km 
New line.mt677114 phases=3 bus1=162898860.1.2.3 bus2=1621862B.1.2.3 linecode=CAB103_3_3_3 length=0.027186 units=km 
New line.mt677121 phases=3 bus1=162898860.1.2.3 bus2=162898861.1.2.3 linecode=CAB103_3_3_3 length=0.007207 units=km 
New line.mt677128 phases=3 bus1=162898860.1.2.3 bus2=1621890B.1.2.3 linecode=CAB107_3_3_3 length=0.006320999999999999 units=km 
New line.mt677135 phases=3 bus1=163304253.1.2.3 bus2=163304256.1.2.3 linecode=CABA06_3_3_3 length=0.034184 units=km 
New line.mt677142 phases=3 bus1=1621890B.1.2.3 bus2=1621911B.1.2.3 linecode=CAB107_3_3_3 length=0.030787 units=km 
New line.mt677149 phases=3 bus1=1621911B.1.2.3 bus2=126316642.1.2.3 linecode=CAB107_3_3_3 length=0.029981999999999998 units=km 
New line.mt677156 phases=3 bus1=126316649.1.2.3 bus2=1621974B.1.2.3 linecode=CAB107_3_3_3 length=0.034387999999999995 units=km 
New line.mt677163 phases=3 bus1=1621974B.1.2.3 bus2=126316656.1.2.3 linecode=CAB107_3_3_3 length=0.014990999999999999 units=km 
New line.mt677170 phases=3 bus1=1622002B.1.2.3 bus2=1622016B.1.2.3 linecode=CAB107_3_3_3 length=0.034387999999999995 units=km 
New line.mt677177 phases=3 bus1=1622016B.1.2.3 bus2=1622030B.1.2.3 linecode=CAB107_3_3_3 length=0.004997 units=km 
New line.mt677184 phases=3 bus1=1622030B.1.2.3 bus2=126316866.1.2.3 linecode=CAB107_3_3_3 length=0.020796 units=km 
New line.mt677191 phases=3 bus1=1622058B.1.2.3 bus2=126316866.1.2.3 linecode=CAB107_3_3_3 length=0.027186 units=km 
New line.mt677198 phases=3 bus1=1622058B.1.2.3 bus2=1622072B.1.2.3 linecode=CAB107_3_3_3 length=0.027186 units=km 
New line.mt677205 phases=3 bus1=1622072B.1.2.3 bus2=1622093B.1.2.3 linecode=CAB107_3_3_3 length=0.022789999999999998 units=km 
New line.mt677212 phases=3 bus1=1622100B.1.2.3 bus2=1622093B.1.2.3 linecode=CAB107_3_3_3 length=0.005828000000000001 units=km 
New line.mt678437 phases=3 bus1=1624158B.1.2.3 bus2=126316663.1.2.3 linecode=CAB107_3_3_3 length=0.026385000000000002 units=km 
New line.mt678444 phases=3 bus1=148575469.1.2.3 bus2=148575470.1.2.3 linecode=CAB107_3_3_3 length=0.027186 units=km 
...
