ULAD215/ssdBT_ULAD215.dss
New line.bt1761792 phases=4 bus1=2039832.1.2.3.4 bus2=2039846.1.2.3.4 length=0.012157999999999999 units=km linecode=BT107_BT106_7_3_1_4
New line.bt1761799 phases=4 bus1=2039839.1.2.3.4 bus2=2039832.1.2.3.4 length=0.009214 units=km linecode=BT803_BT803_4_3_4_4
New line.bt1761813 phases=4 bus1=2039846.1.2.3.4 bus2=2039860.1.2.3.4 length=0.028582999999999997 units=km linecode=BT803_BT803_4_3_4_4
New line.bt1761820 phases=4 bus1=2039853.1.2.3.4 bus2=2039839.1.2.3.4 length=0.025791 units=km linecode=BT803_BT803_4_3_4_4
New line.bt1761827 phases=4 bus1=2039860.1.2.3.4 bus2=2039867.1.2.3.4 length=0.032183 units=km linecode=BT803_BT803_4_3_4_4
New line.bt1761834 phases=4 bus1=2039874.1.2.3.4 bus2=2039853.1.2.3.4 length=0.028582999999999997 units=km linecode=BT803_BT803_4_3_4_4
New line.bt1761841 phases=4 bus1=2039874.1.2.3.4 bus2=2039881.1.2.3.4 length=0.00905 units=km linecode=BT107_BT106_7_3_1_4
New line.bt1761848 phases=4 bus1=2039881.1.2.3.4 bus2=2039888.1.2.3.4 length=0.029393 units=km linecode=BT107_BT106_7_3_1_4
New line.bt1761855 phases=4 bus1=2039888.1.2.3.4 bus2=2039902.1.2.3.4 length=0.032783 units=km linecode=BT107_BT106_7_3_1_4
New line.bt1761862 phases=4 bus1=2039895.1.2.3.4 bus2=2039874.1.2.3.4 length=0.039384 units=km linecode=BT803_BT803_4_3_4_4
New line.bt1761869 phases=4 bus1=2039825.1.2.3.4 bus2=2039895.1.2.3.4 length=0.0005 units=km linecode=BT518_BT518_7_3_1_4
New line.bt1761876 phases=4 bus1=2039895.1.2.3.4 bus2=3426133.1.2.3.4 length=0.031996 units=km linecode=BT803_BT803_4_3_4_4
New line.bt1761883 phases=4 bus1=2039909.1.2.3.4 bus2=2039923.1.2.3.4 length=0.030787 units=km linecode=BT810_BT810_4_3_4_4
New line.bt1761890 phases=4 bus1=2039916.1.2.3.4 bus2=2039930.1.2.3.4 length=0.030787 units=km linecode=BT803_BT803_4_3_4_4
New line.bt1761897 phases=4 bus1=2039923.1.2.3.4 bus2=2039937.1.2.3.4 length=0.032183 units=km linecode=BT810_BT810_4_3_4_4
New line.bt1768897 phases=4 bus1=2047252.1.2.3.4 bus2=2047336.1.2.3.4 length=0.008242000000000001 units=km linecode=BT803_BT803_4_3_4_4
New line.bt1768904 phases=4 bus1=2047259.1.2.3.4 bus2=2047252.1.2.3.4 length=0.029393 units=km linecode=BT803_BT803_4_3_4_4
New line.bt1768911 phases=4 bus1=2047266.1.2.3.4 bus2=2047259.1.2.3.4 length=0.027187000000000003 units=km linecode=BT803_BT803_4_3_4_4
New line.bt1768918 phases=4 bus1=2047245.1.2.3.4 bus2=2047266.1.2.3.4 length=0.0005 units=km linecode=BT521_BT521_7_3_1_4
New line.bt1768925 phases=4 bus1=2047266.1.2.3.4 bus2=2047273.1.2.3.4 length=0.029981999999999998 units=km linecode=BT803_BT803_4_3_4_4
New line.bt1768932 phases=4 bus1=2047273.1.2.3.4 bus2=2047280.1.2.3.4 length=0.026385000000000002 units=km linecode=BT803_BT803_4_3_4_4
New line.bt1768939 phases=4 bus1=161678331.1.2.3.4 bus2=2047287.1.2.3.4 length=0.003604 units=km linecode=BT803_BT803_4_3_4_4
New line.bt1768946 phases=4 bus1=161678331.1.2.3.4 bus2=2047294.1.2.3.4 length=0.025597 units=km linecode=BT803_BT803_4_3_4_4
New line.bt1768953 phases=4 bus1=2047287.1.2.3.4 bus2=2047301.1.2.3.4 length=0.032183 units=km linecode=BT803_BT803_4_3_4_4
New line.bt1768960 phases=4 bus1=2047294.1.2.3.4 bus2=2047315.1.2.3.4 length=0.028001 units=km linecode=BT803_BT803_4_3_4_4
New line.bt1768967 phases=4 bus1=2047301.1.2.3.4 bus2=2047308.1.2.3.4 length=0.032783 units=km linecode=BT803_BT803_4_3_4_4
New line.bt1768974 phases=4 bus1=2047301.1.2.3.4 bus2=2047322.1.2.3.4 length=0.008242000000000001 units=km linecode=BT809_BT809_4_3_4_4
New line.bt1768981 phases=4 bus1=2047322.1.2.3.4 bus2=2047329.1.2.3.4 length=0.036378 units=km linecode=BT809_BT809_4_3_4_4
New line.bt1768988 phases=4 bus1=2047329.1.2.3.4 bus2=3204919.1.2.3.4 length=0.034978999999999996 units=km linecode=BT809_BT809_4_3_4_4
New line.bt1768995 phases=4 bus1=2047336.1.2.3.4 bus2=2047343.1.2.3.4 length=0.026385000000000002 units=km linecode=BT803_BT803_4_3_4_4
New line.bt1769002 phases=4 bus1=2047343.1.2.3.4 bus2=2047350.1.2.3.4 length=0.035587 units=km linecode=BT809_BT809_4_3_4_4
New line.bt1769009 phases=4 bus1=2047343.1.2.3.4 bus2=2047357.1.2.3.4 length=0.03358 units=km linecode=BT803_BT803_4_3_4_4
New line.bt1780650 phases=4 bus1=2059334.1.2.3.4 bus2=2059320.1.2.3.4 length=0.028582999999999997 units=km linecode=BT803_BT803_4_3_4_4
New line.bt1780657 phases=4 bus1=2059341.1.2.3.4 bus2=2059327.1.2.3.4 length=0.031382 units=km linecode=BT803_BT803_4_3_4_4
New line.bt1780664 phases=4 bus1=2059348.1.2.3.4 bus2=2059341.1.2.3.4 length=0.028001 units=km linecode=BT803_BT803_4_3_4_4
New line.bt1780671 phases=4 bus1=2059355.1.2.3.4 bus2=2059334.1.2.3.4 length=0.027186 units=km linecode=BT803_BT803_4_3_4_4
New line.bt1780678 phases=4 bus1=2059362.1.2.3.4 bus2=2059355.1.2.3.4 length=0.0064 units=km linecode=BT803_BT803_4_3_4_4
New line.bt1780685 phases=4 bus1=2059362.1.2.3.4 bus2=2059383.1.2.3.4 length=0.025791 units=km linecode=BT803_BT803_4_3_4_4
New line.bt1780692 phases=4 bus1=2059362.1.2.3.4 bus2=2059474.1.2.3.4 length=0.008596999999999999 units=km linecode=BT803_BT803_4_3_4_4
New line.bt1780699 phases=4 bus1=2059369.1.2.3.4 bus2=2059362.1.2.3.4 length=0.0064 units=km linecode=BT803_BT803_4_3_4_4
New line.bt1780706 phases=4 bus1=2059383.1.2.3.4 bus2=2059411.1.2.3.4 length=0.030213999999999998 units=km linecode=BT803_BT803_4_3_4_4
New line.bt1780713 phases=4 bus1=2059390.1.2.3.4 bus2=2059369.1.2.3.4 length=0.029981999999999998 units=km linecode=BT803_BT803_4_3_4_4
New line.bt1780720 phases=4 bus1=2059313.1.2.3.4 bus2=2059390.1.2.3.4 length=0.0005 units=km linecode=BT309_BT309_7_3_1_4
New line.bt1780727 phases=4 bus1=2059390.1.2.3.4 bus2=2059404.1.2.3.4 length=0.032183 units=km linecode=BT803_BT803_4_3_4_4
New line.bt1780734 phases=4 bus1=2059397.1.2.3.4 bus2=2059376.1.2.3.4 length=0.027186 units=km linecode=BT107_BT106_7_3_1_4
New line.bt1780741 phases=4 bus1=2059404.1.2.3.4 bus2=2059425.1.2.3.4 length=0.024985 units=km linecode=BT803_BT803_4_3_4_4
New line.bt1780748 phases=4 bus1=2059411.1.2.3.4 bus2=2059439.1.2.3.4 length=0.028582999999999997 units=km linecode=BT803_BT803_4_3_4_4
New line.bt1780755 phases=4 bus1=2059418.1.2.3.4 bus2=2059397.1.2.3.4 length=0.027186 units=km linecode=BT107_BT106_7_3_1_4
New line.bt1780762 phases=4 bus1=2059425.1.2.3.4 bus2=2059418.1.2.3.4 length=0.004997 units=km linecode=BT803_BT803_4_3_4_4
New line.bt1780769 phases=4 bus1=2059425.1.2.3.4 bus2=2059432.1.2.3.4 length=0.005828000000000001 units=km linecode=BT803_BT803_4_3_4_4
New line.bt1780776 phases=4 bus1=2059425.1.2.3.4 bus2=2059453.1.2.3.4 length=0.024985 units=km linecode=BT803_BT803_4_3_4_4
New line.bt1780783 phases=4 bus1=2059432.1.2.3.4 bus2=2059446.1.2.3.4 length=0.023587 units=km linecode=BT803_BT803_4_3_4_4
New line.bt1780790 phases=4 bus1=2059439.1.2.3.4 bus2=2059460.1.2.3.4 length=0.025791 units=km linecode=BT803_BT803_4_3_4_4
New line.bt1780797 phases=4 bus1=2059453.1.2.3.4 bus2=2059467.1.2.3.4 length=0.037179000000000004 units=km linecode=BT803_BT803_4_3_4_4
New line.bt1780804 phases=4 bus1=2059474.1.2.3.4 bus2=2059348.1.2.3.4 length=0.005654 units=km linecode=BT803_BT803_4_3_4_4
New line.bt1787097 phases=4 bus1=2065921.1.2.3.4 bus2=3315022.1.2.3.4 length=0.029981999999999998 units=km linecode=BT803_BT803_4_3_4_4
New line.bt1787104 phases=4 bus1=2065935.1.2.3.4 bus2=2065928.1.2.3.4 length=0.005654 units=km linecode=BT803_BT803_4_3_4_4
New line.bt1787111 phases=4 bus1=2065942.1.2.3.4 bus2=2065935.1.2.3.4 length=0.005382 units=km linecode=BT803_BT803_4_3_4_4
New line.bt1787118 phases=4 bus1=2065935.1.2.3.4 bus2=2066026.1.2.3.4 length=0.009214 units=km linecode=BT803_BT803_4_3_4_4
New line.bt1787125 phases=4 bus1=2066012.1.2.3.4 bus2=2065942.1.2.3.4 length=0.03799 units=km linecode=BT803_BT803_4_3_4_4
New line.bt1787132 phases=4 bus1=2065935.1.2.3.4 bus2=2065956.1.2.3.4 length=0.023008 units=km linecode=BT803_BT803_4_3_4_4
New line.bt1787139 phases=4 bus1=2065956.1.2.3.4 bus2=2065963.1.2.3.4 length=0.028582999999999997 units=km linecode=BT803_BT803_4_3_4_4
New line.bt1787146 phases=4 bus1=2065914.1.2.3.4 bus2=2066012.1.2.3.4 length=0.0005 units=km linecode=BT513_BT513_7_3_1_4
New line.bt1787153 phases=4 bus1=2065963.1.2.3.4 bus2=2065970.1.2.3.4 length=0.030787 units=km linecode=BT803_BT803_4_3_4_4
New line.bt1787160 phases=4 bus1=2065970.1.2.3.4 bus2=2065984.1.2.3.4 length=0.027186 units=km linecode=BT803_BT803_4_3_4_4
New line.bt1787167 phases=4 bus1=2065984.1.2.3.4 bus2=2065991.1.2.3.4 length=0.002235 units=km linecode=BT803_BT803_4_3_4_4
New line.bt1787174 phases=4 bus1=2065991.1.2.3.4 bus2=2065998.1.2.3.4 length=0.00447 units=km linecode=BT803_BT803_4_3_4_4
New line.bt1787181 phases=4 bus1=2065991.1.2.3.4 bus2=2066005.1.2.3.4 length=0.038577 units=km linecode=BT803_BT803_4_3_4_4
New line.bt1787188 phases=4 bus1=2065991.1.2.3.4 bus2=2066019.1.2.3.4 length=0.01081 units=km linecode=BT803_BT803_4_3_4_4
New line.bt1787195 phases=4 bus1=2066012.1.2.3.4 bus2=2065949.1.2.3.4 length=0.036103 units=km linecode=BT803_BT803_4_3_4_4
New line.bt1787202 phases=4 bus1=2066019.1.2.3.4 bus2=2065977.1.2.3.4 length=0.015802 units=km linecode=BT803_BT803_4_3_4_4
New line.bt1787230 phases=4 bus1=2066026.1.2.3.4 bus2=2065921.1.2.3.4 length=0.016391 units=km linecode=BT803_BT803_4_3_4_4
New line.bt1795651 phases=4 bus1=2074748.1.2.3.4 bus2=2074741.1.2.3.4 length=0.03358 units=km linecode=BT803_BT803_4_3_4_4
New line.bt1795658 phases=4 bus1=2074755.1.2.3.4 bus2=2074748.1.2.3.4 length=0.031603 units=km linecode=BT803_BT803_4_3_4_4
New line.bt1795665 phases=4 bus1=161686676.1.2.3.4 bus2=2074755.1.2.3.4 length=0.025224 units=km linecode=BT803_BT803_4_3_4_4
New line.bt1795679 phases=4 bus1=2074769.1.2.3.4 bus2=2074762.1.2.3.4 length=0.03358 units=km linecode=BT803_BT803_4_3_4_4
New line.bt1795686 phases=4 bus1=2074734.1.2.3.4 bus2=2074769.1.2.3.4 length=0.0005 units=km linecode=BT307_BT307_7_3_1_4
New line.bt1795693 phases=4 bus1=2074769.1.2.3.4 bus2=2074776.1.2.3.4 length=0.03358 units=km linecode=BT803_BT803_4_3_4_4
New line.bt1795700 phases=4 bus1=2074776.1.2.3.4 bus2=2074783.1.2.3.4 length=0.023587 units=km linecode=BT803_BT803_4_3_4_4
New line.bt1799683 phases=4 bus1=2078969.1.2.3.4 bus2=2078962.1.2.3.4 length=0.029393 units=km linecode=BT809_BT809_4_3_4_4
New line.bt1799690 phases=4 bus1=2078983.1.2.3.4 bus2=2078969.1.2.3.4 length=0.027786 units=km linecode=BT809_BT809_4_3_4_4
New line.bt1799697 phases=4 bus1=2078990.1.2.3.4 bus2=2078976.1.2.3.4 length=0.021388 units=km linecode=BT809_BT809_4_3_4_4
New line.bt1799704 phases=4 bus1=2078990.1.2.3.4 bus2=2078997.1.2.3.4 length=0.004997 units=km linecode=BT809_BT809_4_3_4_4
New line.bt1799711 phases=4 bus1=2078990.1.2.3.4 bus2=2079053.1.2.3.4 length=0.009214 units=km linecode=BT809_BT809_4_3_4_4
New line.bt1799718 phases=4 bus1=2079004.1.2.3.4 bus2=2078990.1.2.3.4 length=0.00447 units=km linecode=BT109_BT109_7_3_1_4
New line.bt1799725 phases=4 bus1=2079011.1.2.3.4 bus2=2079004.1.2.3.4 length=0.03358 units=km linecode=BT803_BT803_4_3_4_4
New line.bt1799732 phases=4 bus1=2078955.1.2.3.4 bus2=2079011.1.2.3.4 length=0.0005 units=km linecode=BT307_BT307_7_3_1_4
New line.bt1799739 phases=4 bus1=2079011.1.2.3.4 bus2=2079018.1.2.3.4 length=0.028001 units=km linecode=BT803_BT803_4_3_4_4
New line.bt1799746 phases=4 bus1=2079018.1.2.3.4 bus2=2079025.1.2.3.4 length=0.029981999999999998 units=km linecode=BT803_BT803_4_3_4_4
New line.bt1799753 phases=4 bus1=161690980.1.2.3.4 bus2=2079032.1.2.3.4 length=0.014204000000000001 units=km linecode=BT803_BT803_4_3_4_4
New line.bt1799760 phases=4 bus1=2079032.1.2.3.4 bus2=2079039.1.2.3.4 length=0.028582999999999997 units=km linecode=BT803_BT803_4_3_4_4
New line.bt1799767 phases=4 bus1=2079039.1.2.3.4 bus2=2079046.1.2.3.4 length=0.028582999999999997 units=km linecode=BT803_BT803_4_3_4_4
New line.bt1799774 phases=4 bus1=2079053.1.2.3.4 bus2=2078983.1.2.3.4 length=0.0078060000000000004 units=km linecode=BT809_BT809_4_3_4_4
New line.bt1813116 phases=4 bus1=2092633.1.2.3.4 bus2=2092626.1.2.3.4 length=0.025791 units=km linecode=BT803_BT803_4_3_4_4
New line.bt1813123 phases=4 bus1=161691535.1.2.3.4 bus2=2092633.1.2.3.4 length=0.017193999999999997 units=km linecode=BT803_BT803_4_3_4_4
New line.bt1813130 phases=4 bus1=2092647.1.2.3.4 bus2=2092640.1.2.3.4 length=0.029981999999999998 units=km linecode=BT108_BT108_7_3_1_4
New line.bt1813137 phases=4 bus1=2092654.1.2.3.4 bus2=2092647.1.2.3.4 length=0.028001 units=km linecode=BT803_BT803_4_3_4_4
New line.bt1813144 phases=4 bus1=2092668.1.2.3.4 bus2=2092654.1.2.3.4 length=0.027186 units=km linecode=BT108_BT108_7_3_1_4
New line.bt1813151 phases=4 bus1=2092675.1.2.3.4 bus2=2092668.1.2.3.4 length=0.004997 units=km linecode=BT108_BT108_7_3_1_4
New line.bt1813158 phases=4 bus1=2092675.1.2.3.4 bus2=2092682.1.2.3.4 length=0.00447 units=km linecode=BT803_BT803_4_3_4_4
New line.bt1813165 phases=4 bus1=2092675.1.2.3.4 bus2=2092822.1.2.3.4 length=0.009994 units=km linecode=BT803_BT803_4_3_4_4
New line.bt1813172 phases=4 bus1=2092682.1.2.3.4 bus2=2092696.1.2.3.4 length=0.031381 units=km linecode=BT803_BT803_4_3_4_4
New line.bt1813179 phases=4 bus1=2092689.1.2.3.4 bus2=2092675.1.2.3.4 length=0.025791 units=km linecode=BT108_BT108_7_3_1_4
New line.bt1813186 phases=4 bus1=2092696.1.2.3.4 bus2=2092703.1.2.3.4 length=0.029981999999999998 units=km linecode=BT803_BT803_4_3_4_4
New line.bt1813200 phases=4 bus1=2092717.1.2.3.4 bus2=2092689.1.2.3.4 length=0.026385000000000002 units=km linecode=BT803_BT803_4_3_4_4
New line.bt1813207 phases=4 bus1=2092619.1.2.3.4 bus2=2092717.1.2.3.4 length=0.0005 units=km linecode=BT513_BT513_7_3_1_4
New line.bt1813214 phases=4 bus1=2092717.1.2.3.4 bus2=2092731.1.2.3.4 length=0.028582999999999997 units=km linecode=BT108_BT108_7_3_1_4
New line.bt1813221 phases=4 bus1=2092724.1.2.3.4 bus2=2092710.1.2.3.4 length=0.029981999999999998 units=km linecode=BT107_BT108_7_3_1_4
New line.bt1813228 phases=4 bus1=136945778.1.2.3.4 bus2=2092738.1.2.3.4 length=0.003604 units=km linecode=BT803_BT803_4_3_4_4
New line.bt1813235 phases=4 bus1=136945778.1.2.3.4 bus2=2092752.1.2.3.4 length=0.025791 units=km linecode=BT803_BT803_4_3_4_4
New line.bt1813242 phases=4 bus1=2092738.1.2.3.4 bus2=2092759.1.2.3.4 length=0.031381 units=km linecode=BT107_BT106_7_3_1_4
New line.bt1813249 phases=4 bus1=2092745.1.2.3.4 bus2=2092724.1.2.3.4 length=0.032183 units=km linecode=BT107_BT108_7_3_1_4
New line.bt1813256 phases=4 bus1=2092752.1.2.3.4 bus2=2092773.1.2.3.4 length=0.024985 units=km linecode=BT803_BT803_4_3_4_4
New line.bt1813263 phases=4 bus1=2092752.1.2.3.4 bus2=2092815.1.2.3.4 length=0.010624 units=km linecode=BT107_BT108_7_3_1_4
New line.bt1813270 phases=4 bus1=2092759.1.2.3.4 bus2=2092766.1.2.3.4 length=0.029981999999999998 units=km linecode=BT810_BT810_4_3_4_4
New line.bt1813277 phases=4 bus1=2092773.1.2.3.4 bus2=2092780.1.2.3.4 length=0.030787 units=km linecode=BT803_BT803_4_3_4_4
New line.bt1813284 phases=4 bus1=2092787.1.2.3.4 bus2=117187039.1.2.3.4 length=0.038577 units=km linecode=BT803_BT803_4_3_4_4
New line.bt1813291 phases=4 bus1=2092794.1.2.3.4 bus2=2092787.1.2.3.4 length=0.015802 units=km linecode=BT803_BT803_4_3_4_4
New line.bt1813298 phases=4 bus1=2092801.1.2.3.4 bus2=2092794.1.2.3.4 length=0.0064 units=km linecode=BT803_BT803_4_3_4_4
New line.bt1813305 phases=4 bus1=2092808.1.2.3.4 bus2=2092801.1.2.3.4 length=0.025791 units=km linecode=BT803_BT803_4_3_4_4
New line.bt1813312 phases=4 bus1=2092815.1.2.3.4 bus2=2092745.1.2.3.4 length=0.004997 units=km linecode=BT107_BT108_7_3_1_4
New line.bt1813340 phases=4 bus1=2092822.1.2.3.4 bus2=2092661.1.2.3.4 length=0.014990999999999999 units=km linecode=BT803_BT803_4_3_4_4
New line.bt1815818 phases=4 bus1=2095342.1.2.3.4 bus2=3134331.1.2.3.4 length=0.030591999999999998 units=km linecode=BT803_BT803_4_3_4_4
New line.bt1816112 phases=4 bus1=2095643.1.2.3.4 bus2=2095650.1.2.3.4 length=0.0005 units=km linecode=BT514_BT514_7_3_1_4
New line.bt1819080 phases=4 bus1=2098548.1.2.3.4 bus2=2098534.1.2.3.4 length=0.029981999999999998 units=km linecode=BT107_BT106_7_3_1_4
New line.bt1819087 phases=4 bus1=2098555.1.2.3.4 bus2=2098541.1.2.3.4 length=0.031603 units=km linecode=BT107_BT107_7_3_1_4
New line.bt1819094 phases=4 bus1=2098562.1.2.3.4 bus2=2098548.1.2.3.4 length=0.029981999999999998 units=km linecode=BT107_BT106_7_3_1_4
New line.bt1819101 phases=4 bus1=2098569.1.2.3.4 bus2=2098555.1.2.3.4 length=0.024193000000000003 units=km linecode=BT108_BT107_7_3_1_4
New line.bt1819108 phases=4 bus1=2098569.1.2.3.4 bus2=2098562.1.2.3.4 length=0.005828000000000001 units=km linecode=BT107_BT106_7_3_1_4
New line.bt1819115 phases=4 bus1=2098569.1.2.3.4 bus2=2098583.1.2.3.4 length=0.025791 units=km linecode=BT107_BT106_7_3_1_4
New line.bt1819122 phases=4 bus1=2098576.1.2.3.4 bus2=2098569.1.2.3.4 length=0.007207 units=km linecode=BT108_BT107_7_3_1_4
New line.bt1819129 phases=4 bus1=2098583.1.2.3.4 bus2=2098611.1.2.3.4 length=0.030787 units=km linecode=BT107_BT106_7_3_1_4
New line.bt1819136 phases=4 bus1=2098590.1.2.3.4 bus2=2098576.1.2.3.4 length=0.029393 units=km linecode=BT108_BT107_7_3_1_4
New line.bt1819143 phases=4 bus1=2098527.1.2.3.4 bus2=2098590.1.2.3.4 length=0.0005 units=km linecode=BT309_BT309_7_3_1_4
New line.bt1819150 phases=4 bus1=2098590.1.2.3.4 bus2=2098604.1.2.3.4 length=0.031381 units=km linecode=BT108_BT107_7_3_1_4
New line.bt1819157 phases=4 bus1=2098604.1.2.3.4 bus2=2098625.1.2.3.4 length=0.023586 units=km linecode=BT108_BT107_7_3_1_4
New line.bt1819164 phases=4 bus1=2098618.1.2.3.4 bus2=2098597.1.2.3.4 length=0.029393 units=km linecode=BT803_BT803_4_3_4_4
New line.bt1819171 phases=4 bus1=2098625.1.2.3.4 bus2=2098618.1.2.3.4 length=0.004997 units=km linecode=BT803_BT803_4_3_4_4
New line.bt1819178 phases=4 bus1=2098625.1.2.3.4 bus2=2098632.1.2.3.4 length=0.0064 units=km linecode=BT108_BT107_7_3_1_4
New line.bt1819185 phases=4 bus1=2098625.1.2.3.4 bus2=2098646.1.2.3.4 length=0.029393 units=km linecode=BT803_BT803_4_3_4_4
New line.bt1819192 phases=4 bus1=2098632.1.2.3.4 bus2=2098639.1.2.3.4 length=0.024985 units=km linecode=BT108_BT107_7_3_1_4
New line.bt1819199 phases=4 bus1=2098646.1.2.3.4 bus2=2098653.1.2.3.4 length=0.029393 units=km linecode=BT803_BT803_4_3_4_4
New line.bt1820109 phases=4 bus1=2099619.1.2.3.4 bus2=2099738.1.2.3.4 length=0.028582999999999997 units=km linecode=BT809_BT809_4_3_4_4
New line.bt1820116 phases=4 bus1=2099626.1.2.3.4 bus2=2099619.1.2.3.4 length=0.025791 units=km linecode=BT809_BT809_4_3_4_4
New line.bt1820123 phases=4 bus1=2099640.1.2.3.4 bus2=2099626.1.2.3.4 length=0.023586 units=km linecode=BT107_BT106_7_3_1_4
New line.bt1820130 phases=4 bus1=2099640.1.2.3.4 bus2=2099633.1.2.3.4 length=0.0078060000000000004 units=km linecode=BT108_BT108_7_3_1_4
New line.bt1820137 phases=4 bus1=2099640.1.2.3.4 bus2=2099647.1.2.3.4 length=0.004997 units=km linecode=BT107_BT106_7_3_1_4
New line.bt1820144 phases=4 bus1=2099647.1.2.3.4 bus2=2099668.1.2.3.4 length=0.032183 units=km linecode=BT107_BT106_7_3_1_4
New line.bt1820151 phases=4 bus1=2099654.1.2.3.4 bus2=2099745.1.2.3.4 length=0.019405000000000002 units=km linecode=BT809_BT809_4_3_4_4
New line.bt1820158 phases=4 bus1=2099661.1.2.3.4 bus2=2099640.1.2.3.4 length=0.023839 units=km linecode=BT108_BT108_7_3_1_4
New line.bt1820165 phases=4 bus1=2099668.1.2.3.4 bus2=2099696.1.2.3.4 length=0.032995 units=km linecode=BT107_BT106_7_3_1_4
New line.bt1820172 phases=4 bus1=2099675.1.2.3.4 bus2=2099661.1.2.3.4 length=0.028582999999999997 units=km linecode=BT108_BT108_7_3_1_4
New line.bt1820179 phases=4 bus1=2099612.1.2.3.4 bus2=2099675.1.2.3.4 length=0.0005 units=km linecode=BT307_BT307_7_3_1_4
New line.bt1820186 phases=4 bus1=2099675.1.2.3.4 bus2=2099689.1.2.3.4 length=0.025791 units=km linecode=BT108_BT108_7_3_1_4
New line.bt1820193 phases=4 bus1=2099682.1.2.3.4 bus2=2099654.1.2.3.4 length=0.027186 units=km linecode=BT809_BT809_4_3_4_4
New line.bt1820200 phases=4 bus1=2099689.1.2.3.4 bus2=2099703.1.2.3.4 length=0.022009 units=km linecode=BT108_BT108_7_3_1_4
New line.bt1820207 phases=4 bus1=2099703.1.2.3.4 bus2=2099682.1.2.3.4 length=0.028827000000000002 units=km linecode=BT108_BT108_7_3_1_4
New line.bt1820214 phases=4 bus1=2099703.1.2.3.4 bus2=2099710.1.2.3.4 length=0.005828000000000001 units=km linecode=BT108_BT108_7_3_1_4
New line.bt1820221 phases=4 bus1=2099703.1.2.3.4 bus2=2099717.1.2.3.4 length=0.003604 units=km linecode=BT108_BT108_7_3_1_4
New line.bt1820228 phases=4 bus1=2099710.1.2.3.4 bus2=2099724.1.2.3.4 length=0.029981999999999998 units=km linecode=BT108_BT108_7_3_1_4
New line.bt1820235 phases=4 bus1=181748043.1.2.3.4 bus2=169513707.1.2.3.4 length=0.035783 units=km linecode=BT803_BT803_4_3_4_4
New line.bt1820242 phases=4 bus1=2099724.1.2.3.4 bus2=2099731.1.2.3.4 length=0.032995 units=km linecode=BT108_BT108_7_3_1_4
New line.bt1820270 phases=4 bus1=3661123.1.2.3.4 bus2=181748043.1.2.3.4 length=0.038577 units=km linecode=BT803_BT803_4_3_4_4
New line.bt1820277 phases=4 bus1=3661130.1.2.3.4 bus2=3661123.1.2.3.4 length=0.005828000000000001 units=km linecode=BT803_BT803_4_3_4_4
New line.bt1820592 phases=4 bus1=2100858.1.2.3.4 bus2=2100851.1.2.3.4 length=0.029981999999999998 units=km linecode=BT803_BT803_4_3_4_4
New line.bt1820599 phases=4 bus1=2100858.1.2.3.4 bus2=2100865.1.2.3.4 length=0.017878 units=km linecode=BT107_BT106_7_3_1_4
New line.bt1820613 phases=4 bus1=2100060.1.2.3.4 bus2=2100067.1.2.3.4 length=0.0005 units=km linecode=BT514_BT514_7_3_1_4
New line.bt1821383 phases=4 bus1=2100851.1.2.3.4 bus2=2095342.1.2.3.4 length=0.028001 units=km linecode=BT803_BT803_4_3_4_4
...